/*--------------------------------*- C++ -*----------------------------------*\
  =========                |
  \      /  F ield         | OpenFOAM: The Open Source CFD Toolbox
   \    /   O peration     | Website:  https://openfoam.org
    \  /    A nd           | Version:  7
     \/     M anipulation  |
\*---------------------------------------------------------------------------*/
FoamFile
{
    version     2.0;
    format      ascii;
    class       dictionary;
    object      blockMeshDict;
}
// * * * * * * * * * * * * * * * * * * * * * * * * * * * * * * * * * * * * * //

convertToMeters 1e-6;

vertices        
(
    (0 0 0)
    ($lx 0 0)
    ($lx $ly 0)
    (0 $ly 0)
    (0 0 1)
    ($lx 0 1)
    ($lx $ly 1)
    (0 $ly 1)
);

blocks          
(
    hex (0 1 2 3 4 5 6 7) ($Nx $Ny 1) simpleGrading (1 1 1)
);

edges           
(
);

boundary         
(
    inlet
    {
        type patch;
        faces
        (
            (0 4 7 3)
        );
    }

    outlet
    {
        type patch;
        faces
        (
            (2 6 5 1)
        );
    }

    top
    {
        type cyclic;
        neighbourPatch bottom;
        faces
        (
            (3 7 6 2)
        );
    }

    bottom
    {
        type cyclic;
        neighbourPatch top;
        faces
        (  
            (1 5 4 0)
        );
    }


    frontAndBack
    {
        type empty;
        faces
        (
            (0 3 2 1)
            (4 5 6 7)
        );
    }
);

mergePatchPairs 
(
);

// ************************************************************************* //
